DS on 05-Oct-2025:
Based on https://github.com/IEAWindTask52/LidarAssistedControl/tree/SummerGames2025
Main idea is to have a starting point for controller groups. 

IEA Wind 3.4 MW 
OpenFAST v3.5.0
ROSCO v2.7.0

IEA Wind 15 MW 
OpenFAST v3.0.0
ROSCO v2.6.0