OpenFAST Files for Controller Team

Last update 07.12.2025