OpenFAST Files for Controller Team

Last update 10.12.2025