OpenFAST Files for Controller Team

Last update 11.12.2025