OpenFAST Files for Controller Team / Feedback + Feedforward controller

Feedback + Feedforward controller with realistic wind preview

Last update 19.12.2025