OpenFAST Files for Controller Team / Feedback + Feedforward controller

Last update 13.12.2025